 xtb: 6.5.1 (dae5204)
          11162215283D

 31 31  0     0  0            999 V2000
   -0.2344    5.8220   12.4560 H   0  0  0  0  0  0  0  0  0  0  0  0
   -1.1834    6.2543   12.1387 C   0  0  0  0  0  0  0  0  0  0  0  0
   -0.9746    7.2985   11.9056 H   0  0  0  0  0  0  0  0  0  0  0  0
   -1.5329    5.6987   11.2685 H   0  0  0  0  0  0  0  0  0  0  0  0
   -2.1874    6.1892   13.2914 C   0  0  0  0  0  0  0  0  0  0  0  0
   -2.3883    5.1403   13.5097 H   0  0  0  0  0  0  0  0  0  0  0  0
   -3.5154    6.7078   12.7360 C   0  0  0  0  0  0  0  0  0  0  0  0
   -3.4381    7.7645   12.4799 H   0  0  0  0  0  0  0  0  0  0  0  0
   -4.3122    6.7237   13.4796 H   0  0  0  0  0  0  0  0  0  0  0  0
   -3.8912    6.1345   11.8885 H   0  0  0  0  0  0  0  0  0  0  0  0
   -1.7196    6.8142   14.6420 C   0  0  0  0  0  0  0  0  0  0  0  0
   -2.5649    6.7387   15.3419 H   0  0  0  0  0  0  0  0  0  0  0  0
   -1.3055    8.2871   14.4671 C   0  0  0  0  0  0  0  0  0  0  0  0
   -2.1215    8.8834   14.0589 H   0  0  0  0  0  0  0  0  0  0  0  0
   -0.4329    8.4210   13.8278 H   0  0  0  0  0  0  0  0  0  0  0  0
   -0.9101    8.8420   15.8371 C   0  0  0  0  0  0  0  0  0  0  0  0
   -0.6220    9.8821   15.6846 H   0  0  0  0  0  0  0  0  0  0  0  0
   -1.7305    8.9135   16.5664 H   0  0  0  0  0  0  0  0  0  0  0  0
    0.2084    8.0652   16.5345 C   0  0  0  0  0  0  0  0  0  0  0  0
    1.1103    8.0838   15.9051 H   0  0  0  0  0  0  0  0  0  0  0  0
    0.5841    8.6261   17.9075 C   0  0  0  0  0  0  0  0  0  0  0  0
   -0.2702    8.5874   18.5834 H   0  0  0  0  0  0  0  0  0  0  0  0
    0.9452    9.6482   17.7940 H   0  0  0  0  0  0  0  0  0  0  0  0
    1.3448    8.0316   18.4134 H   0  0  0  0  0  0  0  0  0  0  0  0
   -0.2284    6.6095   16.7100 C   0  0  0  0  0  0  0  0  0  0  0  0
    0.6359    6.0207   17.0506 H   0  0  0  0  0  0  0  0  0  0  0  0
   -1.0490    6.4897   17.4326 H   0  0  0  0  0  0  0  0  0  0  0  0
   -0.5793    6.0580   15.3267 C   0  0  0  0  0  0  0  0  0  0  0  0
    0.2982    6.0636   14.6635 H   0  0  0  0  0  0  0  0  0  0  0  0
   -1.0305    4.7275   15.5929 O   0  0  0  0  0  0  0  0  0  0  0  0
   -0.2589    4.1901   15.8351 H   0  0  0  0  0  0  0  0  0  0  0  0
  1  2  1  0  0  0  0
  2  3  1  0  0  0  0
  2  4  1  0  0  0  0
  2  5  1  0  0  0  0
  5  6  1  0  0  0  0
  5  7  1  0  0  0  0
  7  8  1  0  0  0  0
  7  9  1  0  0  0  0
  7 10  1  0  0  0  0
  5 11  1  0  0  0  0
 11 12  1  0  0  0  0
 11 13  1  0  0  0  0
 13 14  1  0  0  0  0
 13 15  1  0  0  0  0
 13 16  1  0  0  0  0
 16 17  1  0  0  0  0
 16 18  1  0  0  0  0
 16 19  1  0  0  0  0
 19 20  1  0  0  0  0
 19 21  1  0  0  0  0
 21 22  1  0  0  0  0
 21 23  1  0  0  0  0
 21 24  1  0  0  0  0
 19 25  1  0  0  0  0
 25 26  1  0  0  0  0
 25 27  1  0  0  0  0
 11 28  1  0  0  0  0
 25 28  1  0  0  0  0
 28 29  1  0  0  0  0
 28 30  1  0  0  0  0
 30 31  1  0  0  0  0
M  END
